clock {
     timezone EST+5EDT;
     timestamp '2009-07-21 00:00:00';
     stoptime '2009-07-23 00:01:00';
}

#set profiler=1;
#set double_format=%+.12lg
#set randomseed=10;
#set relax_naming_rules=1;
#include "water_and_setpoint_schedule_v3.glm";
#include "appliance_schedules.glm";

module market;
module tape;
module comm;
module climate;
module residential {
     implicit_enduses NONE;
};
module powerflow {
     solver_method FBS;
     NR_iteration_limit 100;
};

class player {
      double value;
}
object player {
    name phase_A_load;
    file phase_A.player;
    loop 1;
}
object player {
    name phase_B_load;
    file phase_B.player;
    loop 1;
}
object player {
    name phase_C_load;
    file phase_C.player;
    loop 1;
}
object csv_reader {
     name CSVREADER;
     filename ColumbusWeather2009_2a.csv;
}

object climate {
     name "Columbus OH";
     tmyfile ColumbusWeather2009_2a.csv;
     reader CSVREADER;
};


class auction {
 	double day_ahead_average;
 	double day_ahead_std;
 	double current_price_mean_24h;
    double current_price_stdev_24h;
}
object auction {
    name Market1;
    unit kW;
    period 300;
    price_cap 3.78;
    transaction_log_file log_file_fncs_GLD_300node_feeder_1_base_case.csv;
    curve_log_file bid_curve_fncs_GLD_300node_feeder_1_base_case.csv;
    curve_log_info EXTRA;
    object market_network_interface {
         name MarkNIF1;
         average_price_prop current_price_mean_24h;
         stdev_price_prop current_price_stdev_24h;
		 adjust_price_prop adjust_price;
    };
    object player {
        property fixed_price;
        file AEP_RT_LMP.player;
        loop 1;
    };
    special_mode BUYERS_ONLY;
    object recorder {
        property capacity_reference_bid_price, current_market.clearing_price, current_market.clearing_quantity;
        limit 100000000;
        interval 300;
        file baseprice_clearedprice_clearedquantity_fncs_GLD_300node_feeder_1.csv;
    };
    init_price 0.042676;
    init_stdev 0.02;
    use_future_mean_price FALSE;
    warmup 0;
}
object transformer_configuration {
      name substation_config;
      connect_type WYE_WYE;
      install_type PADMOUNT;
      primary_voltage 7200 V;
      secondary_voltage 7200 V;
      power_rating 4500;
      powerA_rating 1500;
      powerB_rating 1500;
      powerC_rating 1500;
      impedance 0.0015+0.00675j;
}

object transformer_configuration {
     name default_transformer_A;
     connect_type SINGLE_PHASE_CENTER_TAPPED;
     install_type PADMOUNT;
     primary_voltage 7200 V;
     secondary_voltage 124 V;
     power_rating 1500;
     powerA_rating 1500;
     impedance 0.015+0.0675j;
}

object transformer_configuration {
     name default_transformer_B;
     connect_type SINGLE_PHASE_CENTER_TAPPED;
     install_type PADMOUNT;
     primary_voltage 7200 V;
     secondary_voltage 124 V;
     power_rating 1500;
     powerB_rating 1500;
     impedance 0.015+0.0675j;
}

object transformer_configuration {
     name default_transformer_C;
     connect_type SINGLE_PHASE_CENTER_TAPPED;
     install_type PADMOUNT;
     primary_voltage 7200 V;
     secondary_voltage 124 V;
     power_rating 1500;
     powerC_rating 1500;
     impedance 0.015+0.0675j;
}

object triplex_line_conductor {
      name Name_1_0_AA_triplex;
      resistance 0.57;
      geometric_mean_radius 0.0111;
}

object triplex_line_configuration {
      name TLCFG;
      conductor_1 Name_1_0_AA_triplex;
      conductor_2 Name_1_0_AA_triplex;
      conductor_N Name_1_0_AA_triplex;
      insulation_thickness 0.08;
      diameter 0.368;
}

object substation {
	bustype SWING;
	name substation_root;
	nominal_voltage 7200;
	reference_phase PHASE_A;
	phases ABCN;
	voltage_A 7200.0+0.0j;
	voltage_B -3600.0-6235.3829j;
	voltage_C -3600.0+6235.3829j;
	object recorder{
		property positive_sequence_voltage,distribution_load;
		file substation_parameters_feeder_1.csv;
		interval 300;
	};
}

object transformer {
      phases ABCN;
      groupid F1_Network_Trans;
      name F1_Transformer1;
      from substation_root;
      to F1_transformer_meter;
      configuration substation_config;
}

object meter {
     name F1_transformer_meter;
     phases ABCN;
     nominal_voltage 7200;
}

object load {
     name F1_unresp_load;
     nominal_voltage 7200;
     phases ABCN;
     parent F1_transformer_meter;
     constant_power_A_real phase_A_load.value*0.1;
     constant_power_B_real phase_B_load.value*0.1;
     constant_power_C_real phase_C_load.value*0.1;
};

object transformer {
     name F1_center_tap_transformer_A;
     phases AS;
     from F1_transformer_meter;
     to F1_triplex_node_A;
     configuration default_transformer_A;
}

object transformer {
     name F1_center_tap_transformer_B;
     phases BS;
     from F1_transformer_meter;
     to F1_triplex_node_B;
     configuration default_transformer_B;
}

object transformer {
     name F1_center_tap_transformer_C;
     phases CS;
     from F1_transformer_meter;
     to F1_triplex_node_C;
     configuration default_transformer_C;
}

object triplex_meter {
     name F1_triplex_node_A;
     phases AS;
     nominal_voltage 124.00;
}

object triplex_meter {
     name F1_triplex_node_B;
     phases BS;
     nominal_voltage 124.00;
}

object triplex_meter {
     name F1_triplex_node_C;
     phases CS;
     nominal_voltage 124.00;
}

object triplex_line {
     from F1_triplex_node_A;
     to F1_tpm_flatrate_A1;
     groupid F1_Triplex_Line;
     phases AS;
     length 10;
     configuration TLCFG;
}

object triplex_meter {
     nominal_voltage 124;
     phases AS;
     name F1_tpm_flatrate_A1;
     groupid F1_flatrate_meter;
}

object triplex_meter {
     nominal_voltage 124;
     phases AS;
     name F1_tpm_rt_A1;
     groupid F1_rt_meter;
     parent F1_tpm_flatrate_A1;
}

object house {
     name F1_H_1;
     //Residential_2
     parent F1_tpm_rt_A1;
     schedule_skew -685;
     Rroof 33.69;
     Rwall 17.71;
     Rfloor 17.02;
     Rdoors 5;
     Rwindows 1.81;
     airchange_per_hour 0.80;
     hvac_power_factor 0.97;
     cooling_system_type ELECTRIC;
     heating_system_type GAS;
     fan_type ONE_SPEED;
     hvac_breaker_rating 200;
     total_thermal_mass_per_floor_area 3.01;
     motor_efficiency AVERAGE;
     motor_model BASIC;
     cooling_COP 3.90;
     floor_area 1040;
     number_of_doors 2;
     heating_setpoint heating7*1.017+2.41;

     object controller {
          name F1_C_1;
          use_override ON;
          override override;
          market Market1;
          schedule_skew -685;
          bid_mode PROXY;
          proxy_delay 10;
          object controller_network_interface {
               name F1_single_ramp_NIF_1;
               destination MarkNIF1;   
          };
          control_mode RAMP;
          base_setpoint cooling8*0.977+3.56;
          setpoint cooling_setpoint;
          target air_temperature;
          deadband thermostat_deadband;
          use_predictive_bidding true;
          average_target current_price_mean_24h;
          standard_deviation_target current_price_stdev_24h;
          period 300;
          demand last_cooling_load;
           range_high 4.000;
           range_low -2.000;
           ramp_high 2.600;
           ramp_low 2.600;
          total total_load;
          load hvac_load;
          state power_state;
     };

     object ZIPload {
          schedule_skew -685;
          base_power LIGHTS*1.8752;
          power_fraction 0.600000;
          impedance_fraction 0.400000;
          current_fraction 0.000000;
          power_pf -0.780;
          current_pf 0.420;
          impedance_pf -0.880;
          heat_fraction 0.91;
     };
     object ZIPload {
          schedule_skew -685;
          base_power CLOTHESWASHER*0.4354;
          power_fraction 1.000000;
          impedance_fraction 0.000000;
          current_fraction 0.000000;
          power_pf 0.970;
          current_pf 0.970;
          impedance_pf 0.970;
          heat_fraction 0.70;
     };
     object ZIPload {
          schedule_skew -685;
          base_power REFRIGERATOR*0.7763;
          power_fraction 1.000000;
          impedance_fraction 0.000000;
          current_fraction 0.000000;
          power_pf 0.970;
          current_pf 0.970;
          impedance_pf 0.970;
          heat_fraction 0.86;
     };
     object ZIPload {
          schedule_skew -685;
          base_power DRYER*1.0019;
          power_fraction 0.100000;
          impedance_fraction 0.800000;
          current_fraction 0.100000;
          power_pf 0.900;
          current_pf 0.900;
          impedance_pf 1.000;
          heat_fraction 0.77;
     };
     object ZIPload {
          schedule_skew -685;
          base_power FREEZER*0.9110;
          power_fraction 1.000000;
          impedance_fraction 0.000000;
          current_fraction 0.000000;
          power_pf 0.970;
          current_pf 0.970;
          impedance_pf 0.970;
          heat_fraction 0.80;
     };
     object ZIPload {
          schedule_skew -685;
          base_power RANGE*1.0590;
          power_fraction 0.000000;
          impedance_fraction 1.000000;
          current_fraction 0.000000;
          power_pf 0.000;
          current_pf 0.000;
          impedance_pf 1.000;
          heat_fraction 0.86;
     };
     object ZIPload {
          schedule_skew -685;
          base_power MICROWAVE*0.6381;
          power_fraction 1.000000;
          impedance_fraction 0.000000;
          current_fraction 0.000000;
          power_pf 0.970;
          current_pf 0.970;
          impedance_pf 0.970;
          heat_fraction 0.94;
     };
}

object triplex_line {
     from F1_triplex_node_A;
     to F1_tpm_flatrate_A2;
     groupid F1_Triplex_Line;
     phases AS;
     length 10;
     configuration TLCFG;
}

object triplex_meter {
     nominal_voltage 124;
     phases AS;
     name F1_tpm_flatrate_A2;
     groupid F1_flatrate_meter;
}

object triplex_meter {
     nominal_voltage 124;
     phases AS;
     name F1_tpm_rt_A2;
     groupid F1_rt_meter;
     parent F1_tpm_flatrate_A2;
}

object house {
     name F1_H_2;
     //Residential_1
     parent F1_tpm_rt_A2;
     schedule_skew -505;
     Rroof 15.80;
     Rwall 10.68;
     Rfloor 11.65;
     Rdoors 3;
     Rwindows 0.97;
     airchange_per_hour 1.08;
     hvac_power_factor 0.97;
     cooling_system_type ELECTRIC;
     heating_system_type GAS;
     fan_type ONE_SPEED;
     hvac_breaker_rating 200;
     total_thermal_mass_per_floor_area 4.63;
     motor_efficiency AVERAGE;
     motor_model BASIC;
     cooling_COP 3.26;
     floor_area 1396;
     number_of_doors 2;
     heating_setpoint heating4*0.979+2.33;

     object controller {
          name F1_C_2;
          use_override ON;
          override override;
          market Market1;
          schedule_skew -505;
          bid_mode PROXY;
          proxy_delay 10;
          object controller_network_interface {
               name F1_single_ramp_NIF_2;
               destination MarkNIF1;
               
          };
          control_mode RAMP;
          base_setpoint cooling8*1.048+5.35;
          setpoint cooling_setpoint;
          target air_temperature;
          deadband thermostat_deadband;
          use_predictive_bidding true;
          average_target current_price_mean_24h;
          standard_deviation_target current_price_stdev_24h;
          period 300;
          demand last_cooling_load;
           range_high 6.000;
           range_low -3.000;
           ramp_high 2.400;
           ramp_low 2.400;
          total total_load;
          load hvac_load;
          state power_state;
     };

     object ZIPload {
          schedule_skew -505;
          base_power LIGHTS*1.1552;
          power_fraction 0.000000;
          impedance_fraction 1.000000;
          current_fraction 0.000000;
          power_pf 0.000;
          current_pf 0.000;
          impedance_pf 1.000;
          heat_fraction 0.82;
     };
}

object triplex_line {
     from F1_triplex_node_A;
     to F1_tpm_flatrate_A3;
     groupid F1_Triplex_Line;
     phases AS;
     length 10;
     configuration TLCFG;
}

object triplex_meter {
     nominal_voltage 124;
     phases AS;
     name F1_tpm_flatrate_A3;
     groupid F1_flatrate_meter;
}

object triplex_meter {
     nominal_voltage 124;
     phases AS;
     name F1_tpm_rt_A3;
     groupid F1_rt_meter;
     parent F1_tpm_flatrate_A3;
}

object house {
     name F1_H_3;
     //Residential_2
     parent F1_tpm_rt_A3;
     schedule_skew 35;
     Rroof 28.89;
     Rwall 19.23;
     Rfloor 14.66;
     Rdoors 5;
     Rwindows 1.61;
     airchange_per_hour 0.98;
     hvac_power_factor 0.97;
     cooling_system_type ELECTRIC;
     heating_system_type GAS;
     fan_type ONE_SPEED;
     hvac_breaker_rating 200;
     total_thermal_mass_per_floor_area 4.03;
     motor_efficiency AVERAGE;
     motor_model BASIC;
     cooling_COP 3.94;
     floor_area 756;
     number_of_doors 1;
     heating_setpoint heating5*0.961+2.43;

     object controller {
          name F1_C_3;
          use_override ON;
          override override;
          market Market1;
          schedule_skew 35;
          bid_mode PROXY;
          proxy_delay 10;
          object controller_network_interface {
               name F1_single_ramp_NIF_3;
               destination MarkNIF1;
               
          };
          control_mode RAMP;
          base_setpoint cooling4*1.002+3.27;
          setpoint cooling_setpoint;
          target air_temperature;
          deadband thermostat_deadband;
          use_predictive_bidding true;
          average_target current_price_mean_24h;
          standard_deviation_target current_price_stdev_24h;
          period 300;
          demand last_cooling_load;
           range_high 6.000;
           range_low -3.000;
           ramp_high 2.400;
           ramp_low 2.400;
          total total_load;
          load hvac_load;
          state power_state;
     };

     object ZIPload {
          schedule_skew 35;
          base_power LIGHTS*1.9408;
          power_fraction 0.600000;
          impedance_fraction 0.400000;
          current_fraction 0.000000;
          power_pf -0.780;
          current_pf 0.420;
          impedance_pf -0.880;
          heat_fraction 0.88;
     };
     object ZIPload {
          schedule_skew 35;
          base_power CLOTHESWASHER*0.8239;
          power_fraction 1.000000;
          impedance_fraction 0.000000;
          current_fraction 0.000000;
          power_pf 0.970;
          current_pf 0.970;
          impedance_pf 0.970;
          heat_fraction 0.81;
     };
     object ZIPload {
          schedule_skew 35;
          base_power REFRIGERATOR*0.4240;
          power_fraction 1.000000;
          impedance_fraction 0.000000;
          current_fraction 0.000000;
          power_pf 0.970;
          current_pf 0.970;
          impedance_pf 0.970;
          heat_fraction 0.93;
     };
     object ZIPload {
          schedule_skew 35;
          base_power DRYER*0.8937;
          power_fraction 0.100000;
          impedance_fraction 0.800000;
          current_fraction 0.100000;
          power_pf 0.900;
          current_pf 0.900;
          impedance_pf 1.000;
          heat_fraction 0.93;
     };
     object ZIPload {
          schedule_skew 35;
          base_power FREEZER*0.3775;
          power_fraction 1.000000;
          impedance_fraction 0.000000;
          current_fraction 0.000000;
          power_pf 0.970;
          current_pf 0.970;
          impedance_pf 0.970;
          heat_fraction 0.65;
     };
     object ZIPload {
          schedule_skew 35;
          base_power RANGE*0.7730;
          power_fraction 0.000000;
          impedance_fraction 1.000000;
          current_fraction 0.000000;
          power_pf 0.000;
          current_pf 0.000;
          impedance_pf 1.000;
          heat_fraction 0.79;
     };
     object ZIPload {
          schedule_skew 35;
          base_power MICROWAVE*0.3543;
          power_fraction 1.000000;
          impedance_fraction 0.000000;
          current_fraction 0.000000;
          power_pf 0.970;
          current_pf 0.970;
          impedance_pf 0.970;
          heat_fraction 0.80;
     };
}

object triplex_line {
     from F1_triplex_node_A;
     to F1_tpm_flatrate_A4;
     groupid F1_Triplex_Line;
     phases AS;
     length 10;
     configuration TLCFG;
}

object triplex_meter {
     nominal_voltage 124;
     phases AS;
     name F1_tpm_flatrate_A4;
     groupid F1_flatrate_meter;
}

object triplex_meter {
     nominal_voltage 124;
     phases AS;
     name F1_tpm_rt_A4;
     groupid F1_rt_meter;
     parent F1_tpm_flatrate_A4;
}

object house {
     name F1_H_4;
     //Residential_3
     parent F1_tpm_rt_A4;
     schedule_skew 260;
     Rroof 20.99;
     Rwall 13.98;
     Rfloor 11.45;
     Rdoors 3;
     Rwindows 1.40;
     airchange_per_hour 1.18;
     hvac_power_factor 0.97;
     cooling_system_type ELECTRIC;
     heating_system_type GAS;
     fan_type ONE_SPEED;
     hvac_breaker_rating 200;
     total_thermal_mass_per_floor_area 3.42;
     motor_efficiency AVERAGE;
     motor_model BASIC;
     cooling_COP 3.28;
     floor_area 3882;
     number_of_doors 4;
     heating_setpoint heating4*1.043+0.05;

     object controller {
          name F1_C_4;
          use_override ON;
          override override;
          market Market1;
          schedule_skew 260;
          bid_mode PROXY;
          proxy_delay 10;
          object controller_network_interface {
               name F1_single_ramp_NIF_4;
               destination MarkNIF1;
               
          };
          control_mode RAMP;
          base_setpoint cooling3*1.018+2.06;
          setpoint cooling_setpoint;
          target air_temperature;
          deadband thermostat_deadband;
          use_predictive_bidding true;
          average_target current_price_mean_24h;
          standard_deviation_target current_price_stdev_24h;
          period 300;
          demand last_cooling_load;
           range_high 4.000;
           range_low -2.000;
           ramp_high 2.600;
           ramp_low 2.600;
          total total_load;
          load hvac_load;
          state power_state;
     };

     object ZIPload {
          schedule_skew 260;
          base_power LIGHTS*2.2355;
          power_fraction 0.600000;
          impedance_fraction 0.400000;
          current_fraction 0.000000;
          power_pf -0.780;
          current_pf 0.420;
          impedance_pf -0.880;
          heat_fraction 0.76;
     };
     object ZIPload {
          schedule_skew 260;
          base_power CLOTHESWASHER*0.8669;
          power_fraction 1.000000;
          impedance_fraction 0.000000;
          current_fraction 0.000000;
          power_pf 0.970;
          current_pf 0.970;
          impedance_pf 0.970;
          heat_fraction 0.66;
     };
     object ZIPload {
          schedule_skew 260;
          base_power REFRIGERATOR*1.2708;
          power_fraction 1.000000;
          impedance_fraction 0.000000;
          current_fraction 0.000000;
          power_pf 0.970;
          current_pf 0.970;
          impedance_pf 0.970;
          heat_fraction 0.79;
     };
     object ZIPload {
          schedule_skew 260;
          base_power DRYER*1.0217;
          power_fraction 0.100000;
          impedance_fraction 0.800000;
          current_fraction 0.100000;
          power_pf 0.900;
          current_pf 0.900;
          impedance_pf 1.000;
          heat_fraction 0.93;
     };
     object ZIPload {
          schedule_skew 260;
          base_power FREEZER*1.3624;
          power_fraction 1.000000;
          impedance_fraction 0.000000;
          current_fraction 0.000000;
          power_pf 0.970;
          current_pf 0.970;
          impedance_pf 0.970;
          heat_fraction 0.94;
     };
     object ZIPload {
          schedule_skew 260;
          base_power RANGE*0.8736;
          power_fraction 0.000000;
          impedance_fraction 1.000000;
          current_fraction 0.000000;
          power_pf 0.000;
          current_pf 0.000;
          impedance_pf 1.000;
          heat_fraction 0.86;
     };
     object ZIPload {
          schedule_skew 260;
          base_power MICROWAVE*2.0009;
          power_fraction 1.000000;
          impedance_fraction 0.000000;
          current_fraction 0.000000;
          power_pf 0.970;
          current_pf 0.970;
          impedance_pf 0.970;
          heat_fraction 0.90;
     };
}

object triplex_line {
     from F1_triplex_node_A;
     to F1_tpm_flatrate_A5;
     groupid F1_Triplex_Line;
     phases AS;
     length 10;
     configuration TLCFG;
}

object triplex_meter {
     nominal_voltage 124;
     phases AS;
     name F1_tpm_flatrate_A5;
     groupid F1_flatrate_meter;
}

object triplex_meter {
     nominal_voltage 124;
     phases AS;
     name F1_tpm_rt_A5;
     groupid F1_rt_meter;
     parent F1_tpm_flatrate_A5;
}

object house {
     name F1_H_5;
     //Residential_1
     parent F1_tpm_rt_A5;
     schedule_skew 1264;
     Rroof 22.61;
     Rwall 9.10;
     Rfloor 10.29;
     Rdoors 3;
     Rwindows 1.11;
     airchange_per_hour 1.09;
     hvac_power_factor 0.97;
     cooling_system_type ELECTRIC;
     heating_system_type GAS;
     fan_type ONE_SPEED;
     hvac_breaker_rating 200;
     total_thermal_mass_per_floor_area 4.23;
     motor_efficiency AVERAGE;
     motor_model BASIC;
     cooling_COP 2.98;
     floor_area 844;
     number_of_doors 1;
     heating_setpoint heating2*1.019+1.22;

     object controller {
          name F1_C_5;
          use_override ON;
          override override;
          market Market1;
          schedule_skew 1264;
          bid_mode PROXY;
          proxy_delay 10;
          object controller_network_interface {
               name F1_single_ramp_NIF_5;
               destination MarkNIF1;
               
          };
          control_mode RAMP;
          base_setpoint cooling1*1.006+5.77;
          setpoint cooling_setpoint;
          target air_temperature;
          deadband thermostat_deadband;
          use_predictive_bidding true;
          average_target current_price_mean_24h;
          standard_deviation_target current_price_stdev_24h;
          period 300;
          demand last_cooling_load;
           range_high 2.000;
           range_low -1.000;
           ramp_high 2.800;
           ramp_low 2.800;
          total total_load;
          load hvac_load;
          state power_state;
     };

     object ZIPload {
          schedule_skew 1264;
          base_power LIGHTS*1.3667;
          power_fraction 0.000000;
          impedance_fraction 1.000000;
          current_fraction 0.000000;
          power_pf 0.000;
          current_pf 0.000;
          impedance_pf 1.000;
          heat_fraction 0.68;
     };
     object ZIPload {
          schedule_skew 1264;
          base_power CLOTHESWASHER*0.3897;
          power_fraction 1.000000;
          impedance_fraction 0.000000;
          current_fraction 0.000000;
          power_pf 0.970;
          current_pf 0.970;
          impedance_pf 0.970;
          heat_fraction 0.96;
     };
     object ZIPload {
          schedule_skew 1264;
          base_power REFRIGERATOR*0.9743;
          power_fraction 1.000000;
          impedance_fraction 0.000000;
          current_fraction 0.000000;
          power_pf 0.970;
          current_pf 0.970;
          impedance_pf 0.970;
          heat_fraction 0.66;
     };
     object ZIPload {
          schedule_skew 1264;
          base_power DRYER*0.8633;
          power_fraction 0.100000;
          impedance_fraction 0.800000;
          current_fraction 0.100000;
          power_pf 0.900;
          current_pf 0.900;
          impedance_pf 1.000;
          heat_fraction 0.78;
     };
     object ZIPload {
          schedule_skew 1264;
          base_power RANGE*0.2890;
          power_fraction 0.000000;
          impedance_fraction 1.000000;
          current_fraction 0.000000;
          power_pf 0.000;
          current_pf 0.000;
          impedance_pf 1.000;
          heat_fraction 0.86;
     };
     object ZIPload {
          schedule_skew 1264;
          base_power MICROWAVE*1.0672;
          power_fraction 1.000000;
          impedance_fraction 0.000000;
          current_fraction 0.000000;
          power_pf 0.970;
          current_pf 0.970;
          impedance_pf 0.970;
          heat_fraction 0.93;
     };
}

object triplex_line {
     from F1_triplex_node_A;
     to F1_tpm_flatrate_A6;
     groupid F1_Triplex_Line;
     phases AS;
     length 10;
     configuration TLCFG;
}

object triplex_meter {
     nominal_voltage 124;
     phases AS;
     name F1_tpm_flatrate_A6;
     groupid F1_flatrate_meter;
}

object triplex_meter {
     nominal_voltage 124;
     phases AS;
     name F1_tpm_rt_A6;
     groupid F1_rt_meter;
     parent F1_tpm_flatrate_A6;
}

object house {
     name F1_H_6;
     //Residential_1
     parent F1_tpm_rt_A6;
     schedule_skew -2499;
     Rroof 16.61;
     Rwall 8.19;
     Rfloor 10.09;
     Rdoors 3;
     Rwindows 1.26;
     airchange_per_hour 0.84;
     hvac_power_factor 0.97;
     cooling_system_type ELECTRIC;
     heating_system_type GAS;
     fan_type ONE_SPEED;
     hvac_breaker_rating 200;
     total_thermal_mass_per_floor_area 4.44;
     motor_efficiency AVERAGE;
     motor_model BASIC;
     cooling_COP 2.71;
     floor_area 804;
     number_of_doors 1;
     heating_setpoint heating1*0.991+2.72;

     object controller {
          name F1_C_6;
          use_override ON;
          override override;
          market Market1;
          schedule_skew -2499;
          bid_mode PROXY;
          proxy_delay 10;
          object controller_network_interface {
               name F1_single_ramp_NIF_6;
               destination MarkNIF1;
               
          };
          control_mode RAMP;
          base_setpoint cooling7*0.956+5.02;
          setpoint cooling_setpoint;
          target air_temperature;
          deadband thermostat_deadband;
          use_predictive_bidding true;
          average_target current_price_mean_24h;
          standard_deviation_target current_price_stdev_24h;
          period 300;
          demand last_cooling_load;
           range_high 6.000;
           range_low -3.000;
           ramp_high 2.400;
           ramp_low 2.400;
          total total_load;
          load hvac_load;
          state power_state;
     };

     object ZIPload {
          schedule_skew -2499;
          base_power LIGHTS*1.1573;
          power_fraction 0.600000;
          impedance_fraction 0.400000;
          current_fraction 0.000000;
          power_pf -0.780;
          current_pf 0.420;
          impedance_pf -0.880;
          heat_fraction 0.77;
     };
}

object triplex_line {
     from F1_triplex_node_A;
     to F1_tpm_flatrate_A7;
     groupid F1_Triplex_Line;
     phases AS;
     length 10;
     configuration TLCFG;
}

object triplex_meter {
     nominal_voltage 124;
     phases AS;
     name F1_tpm_flatrate_A7;
     groupid F1_flatrate_meter;
}

object triplex_meter {
     nominal_voltage 124;
     phases AS;
     name F1_tpm_rt_A7;
     groupid F1_rt_meter;
     parent F1_tpm_flatrate_A7;
}

object house {
     name F1_H_7;
     //Residential_4
     parent F1_tpm_rt_A7;
     schedule_skew 434;
     Rroof 27.91;
     Rwall 21.89;
     Rfloor 14.02;
     Rdoors 5;
     Rwindows 1.95;
     airchange_per_hour 1.15;
     hvac_power_factor 0.97;
     cooling_system_type ELECTRIC;
     heating_system_type GAS;
     fan_type ONE_SPEED;
     hvac_breaker_rating 200;
     total_thermal_mass_per_floor_area 4.09;
     motor_efficiency AVERAGE;
     motor_model BASIC;
     cooling_COP 3.44;
     floor_area 3695;
     number_of_doors 4;
     heating_setpoint heating5*1.031+2.26;

     object controller {
          name F1_C_7;
          use_override ON;
          override override;
          market Market1;
          schedule_skew 434;
          bid_mode PROXY;
          proxy_delay 10;
          object controller_network_interface {
               name F1_single_ramp_NIF_7;
               destination MarkNIF1;
               
          };
          control_mode RAMP;
          base_setpoint cooling5*1.035+5.35;
          setpoint cooling_setpoint;
          target air_temperature;
          deadband thermostat_deadband;
          use_predictive_bidding true;
          average_target current_price_mean_24h;
          standard_deviation_target current_price_stdev_24h;
          period 300;
          demand last_cooling_load;
           range_high 8.000;
           range_low -4.000;
           ramp_high 2.200;
           ramp_low 2.200;
          total total_load;
          load hvac_load;
          state power_state;
     };

     object ZIPload {
          schedule_skew 434;
          base_power LIGHTS*4.1069;
          power_fraction 0.000000;
          impedance_fraction 1.000000;
          current_fraction 0.000000;
          power_pf 0.000;
          current_pf 0.000;
          impedance_pf 1.000;
          heat_fraction 0.67;
     };
     object ZIPload {
          schedule_skew 434;
          base_power CLOTHESWASHER*1.3204;
          power_fraction 1.000000;
          impedance_fraction 0.000000;
          current_fraction 0.000000;
          power_pf 0.970;
          current_pf 0.970;
          impedance_pf 0.970;
          heat_fraction 0.80;
     };
     object ZIPload {
          schedule_skew 434;
          base_power REFRIGERATOR*1.4569;
          power_fraction 1.000000;
          impedance_fraction 0.000000;
          current_fraction 0.000000;
          power_pf 0.970;
          current_pf 0.970;
          impedance_pf 0.970;
          heat_fraction 0.82;
     };
     object ZIPload {
          schedule_skew 434;
          base_power DRYER*1.0100;
          power_fraction 0.100000;
          impedance_fraction 0.800000;
          current_fraction 0.100000;
          power_pf 0.900;
          current_pf 0.900;
          impedance_pf 1.000;
          heat_fraction 0.65;
     };